/*--------------------------------*- C++ -*----------------------------------*\
| =========                 |                                                 |
| \\      /  F ield         | OpenFOAM: The Open Source CFD Toolbox           |
|  \\    /   O peration     | Version:  v2006                                 |
|   \\  /    A nd           | Website:  www.openfoam.com                      |
|    \\/     M anipulation  |                                                 |
\*---------------------------------------------------------------------------*/
FoamFile
{
    version     2.0;
    format      ascii;
    class       volScalarField;
    object      omega;
}
// * * * * * * * * * * * * * * * * * * * * * * * * * * * * * * * * * * * * * //

omegaInlet      $omegaInlet;

dimensions      [0 0 -1 0 0 0 0];

internalField   uniform $$omegaInlet;

boundaryField
{
	inlet
	{
		    type            inletOutlet;
        inletValue      uniform $$omegaInlet;
        value           uniform $$omegaInlet;
	}

  top
	{
		    type            inletOutlet;
        inletValue      uniform $$omegaInlet;
        value           uniform $$omegaInlet;
	}

    outlet
    {
        type            inletOutlet;
        inletValue      uniform $$omegaInlet;
        value           uniform $$omegaInlet;
    }

    front
      {
       	type            wedge;
    }

    back
      {
       	type            wedge;
    }

    bot
      {
      type            omegaWallFunction;
      value           uniform $omegaWall;
    }

    airfoil
    {
        type            omegaWallFunction;
        value           uniform $omegaWall;
	}

	#includeEtc "caseDicts/setConstraintTypes"

}

// ************************************************************************* //
