/*--------------------------------*- C++ -*----------------------------------*\
| =========                 |                                                 |
| \\      /  F ield         | OpenFOAM: The Open Source CFD Toolbox           |
|  \\    /   O peration     | Version:  v2006                                 |
|   \\  /    A nd           | Website:  www.openfoam.com                      |
|    \\/     M anipulation  |                                                 |
\*---------------------------------------------------------------------------*/
FoamFile
{
    version     2.0;
    format      ascii;
    class       dictionary;
    object      blockMeshDict;
}

// * * * * * * * * * * * * * * * * * * * * * * * * * * * * * * * * * * * * * //

scale   1;

vertices
(
    ($xmin  0.0  0.0)
    ($xmax  0.0  0.0)
    ($xmax $ymax  0.0)
    ($xmin  $ymax  0.0)
    ($xmin  0.0   0.001)
    ($xmax  0.0   0.001)
    ($xmax   $ymax   0.001)
    ($xmin   $ymax  0.001)
);

blocks
(
    hex (0 1 2 3 4 5 6 7) ($nxgrid $nygrid 1) simpleGrading (1 1 1)
);

edges
(
);

boundary
(
    inlet
    {
        type patch;
        faces
        (
            (0 4 7 3)
        );
    }

    top
    {
        type patch;
        faces
        (
            (3 7 6 2)
        );
    }

    bot
    {
        type wall;
        faces
        (
            (1 5 4 0)
        );
    }

    front
    {
        type patch;
        faces
        (
            (4 5 6 7)
        );
    }

    back
    {
       type patch;
       faces
       (
           (0 3 2 1)
       );
    }

    outlet
    {
        type patch;
        faces
        (
            (2 6 5 1)
        );
    }

);

mergePatchPairs
(
);

// ************************************************************************* //
